/*--------------------------------*- C++ -*----------------------------------*\
| =========                 |                                                 |
| \\      /  F ield         | OpenFOAM Extend Project: Open Source CFD        |
|  \\    /   O peration     | Version:  1.6-ext                               |
|   \\  /    A nd           | Web:      www.extend-project.de                 |
|    \\/     M anipulation  |                                                 |
\*---------------------------------------------------------------------------*/
FoamFile
{
    version     2.0;
    format      ascii;
    class       dictionary;
    object      eosProperties;
}
// * * * * * * * * * * * * * * * * * * * * * * * * * * * * * * * * * * * * * //

eqnOfState      teos;

teosInputs
{
    latitude            50.0;
    longitude           -20.0;
}

unescoInputs
{
a5      6.536332E-9;

a4      -1.120083E-6;

a3      1.001685E-4;

a2      -9.09529E-3;

a1      6.793952E-2;

a0      9.998425E2;

SA4     5.3875E-9;

SA3     -8.2467E-7;

SA2     7.6438E-5;

SA1     -4.0899E-3;

SA0     8.2449E-1;

SB2     -1.6546E-6;

SB1     1.02227E-4;

SB0     -5.7246E-3;

SC0     4.8314E-4;

}

// ************************************************************************* //
