/*--------------------------------*- C++ -*----------------------------------*\
| =========                 |                                                 |
| \\      /  F ield         | OpenFOAM Extend Project: Open Source CFD        |
|  \\    /   O peration     | Version:  1.6-ext                               |
|   \\  /    A nd           | Web:      www.extend-project.de                 |
|    \\/     M anipulation  |                                                 |
\*---------------------------------------------------------------------------*/
FoamFile
{
    version     2.0;
    format      ascii;
    class       dictionary;
    object      parameterFile;
}
// * * * * * * * * * * * * * * * * * * * * * * * * * * * * * * * * * * * * * //

// these are the four parameters to adjust for training data

//dTdz can have three values: [0.01, 0.005, 0.001]
dTdz		dTdz [0 -1 0 0 0 0 0] 0.01;

//z0 can have these values: [-30.0, -60.0, -90.0]
z0		z0 [0 1 0 0 0 0 0] -60.0;

// these parameters do not need adjusted
D               D [0 1 0 0 0 0 0] 10.0;
U0              U0 [0 1 -1 0 0 0 0] 5.0;
T0		T0 [0 0 0 0 0 0 0] 20.0;
S0		S0 [0 0 0 0 0 0 0] 35.0;
dSdz		dSdz [0 0 0 0 0 0 0] 0.0;
rho0            rho0 [1 -3 0 0 0 0 0] 1025.0;
kBackground     kBackground [0 2 -2 0 0 0 0] 2.4E-7;
epsBackground   epsBackground [0 2 -3 0 0 0 0] 1.9E-11;
beach           true;
beachStartY     beachStartY [0 1 0 0 0 0 0] 500.0;
beachEndY       beachEndY [0 1 0 0 0 0 0]   750.0;
beachStartZ     beachStartZ [0 1 0 0 0 0 0] 250.0;
beachEndZ       beachEndZ [0 1 0 0 0 0 0]   350.0;


// ************************************************************************* //
