/*--------------------------------*- C++ -*----------------------------------*\
| =========                 |                                                 |
| \\      /  F ield         | OpenFOAM: The Open Source CFD Toolbox           |
|  \\    /   O peration     | Version:  1.5                                   |
|   \\  /    A nd           | Web:      http://www.OpenFOAM.org               |
|    \\/     M anipulation  |                                                 |
\*---------------------------------------------------------------------------*/
FoamFile
{
    version     2.0;
    format      ascii;
    class       dictionary;
    object      controlDict;
}
// * * * * * * * * * * * * * * * * * * * * * * * * * * * * * * * * * * * * * //

application     trainingSolver;

startFrom       startTime;

startTime       0;

stopAt          endTime;

// change endTime to 3600 for the real runs
endTime         3600;

deltaT          1.0;

writeControl    adjustableRunTime;

writeInterval   30.0;

purgeWrite      0;

writeFormat     ascii;

writePrecision  16;

writeCompression true;

timeFormat      general;

timePrecision   6;

runTimeModifiable yes;

adjustTimeStep	no;

maxCo		0.5;

maxDeltaT	1;

// ************************************************************************* //

//libs ("libbuoyantTurbulenceModels.so");

//functions
//{
//    #include "catalyst"
//}


//functions
//{
//    #includeFunc  probes
//}

//#include "probes"
