/*--------------------------------*- C++ -*----------------------------------*\
| =========                 |                                                 |
| \\      /  F ield         | OpenFOAM Extend Project: Open Source CFD        |
|  \\    /   O peration     | Version:  1.6-ext                               |
|   \\  /    A nd           | Web:      www.extend-project.de                 |
|    \\/     M anipulation  |                                                 |
\*---------------------------------------------------------------------------*/
FoamFile
{
    version     2.0;
    format      ascii;
    class       dictionary;
    object      fvSchemes;
}
// * * * * * * * * * * * * * * * * * * * * * * * * * * * * * * * * * * * * * //

ddtSchemes
{
    default     backward;
}

gradSchemes
{
    default     leastSquares;
    // default     cellMDLimited leastSquares 1.0;
    default     faceMDLimited leastSquares 1.0;
}

divSchemes
{
    default Gauss linear phi;

    div(phi,U)              Gauss linear; 

    div(phi,delSalinity)    Gauss linear;
    div(phi,salinityBackground) Gauss linear;
    div(phi,tracer)         Gauss linear;

    div(phi,C_Rn)         Gauss linear;
    div(phi,C_Po)         Gauss linear;
    div(phi,C_Pb)         Gauss linear;
    div(phi,C_Bi)         Gauss linear;

    div(phi,delT)           Gauss upwind;
    div(phi,TBackground)    Gauss upwind;

    div(phi,R)              Gauss linear;
    div(phi,k)              Gauss linear;
    div(phi,epsilon)        Gauss linear;
    div(phi,salinity_epsilonTheta) Gauss linear;
    div(phi,salinity_Var)          Gauss linear;
    div(phi,salinity_F)            Gauss linear;
}

laplacianSchemes
{
    default         Gauss linear uncorrected; // limited 1.0;
}

interpolationSchemes
{
    default         linear;
}

snGradSchemes
{
    default         uncorrected; // limited 1.0;
}

wallDist
{
    method          meshWave;
    nRequired       yes;
}

fluxRequired
{
    default         no;
    p;
    p_rgh;
}

// ************************************************************************* //
