/*--------------------------------*- C++ -*----------------------------------*\
| =========                 |                                                 |
| \\      /  F ield         | OpenFOAM Extend Project: Open source CFD        |
|  \\    /   O peration     | Version:  1.6-ext                               |
|   \\  /    A nd           | Web:      www.extend-project.de                 |
|    \\/     M anipulation  |                                                 |
\*---------------------------------------------------------------------------*/
FoamFile
{
    version     2.0;
    format      ascii;
    class       dictionary;
    location    system;
    object      sampleDict;
}

// * * * * * * * * * * * * * * * * * * * * * * * * * * * * * * * * * * * * //

setFormat raw;

surfaceFormat vtk;

interpolationScheme cellPoint;

fields
(
    U k T rho
);


sets
(
    depth20m
    {
        type        midPoint;
        axis        y;
        start       (0.5  -1000.00 -20.001);
        end         (0.5 1000.00 -20.001);
    }
    depth30m
    {
        type        midPoint;
        axis        z;
        start       (0.5  -1000.00 -30.001);
        end         (0.5 1000.00 -30.001);
    }
    depth40m
    {
        type        midPoint;
        axis        z;
        start       (0.5  -1000.00 -40.001);
        end         (0.5 1000.00 -40.001);
    }
);


surfaces
(
    //atmosphere
    //{
    //    type            patch;
    //    //patches         ( "atmosphere" ); // OF
    //    patchName         "atmosphere";
    //}
    //coDepth
   // {
    //    type            plane; 
    //    basePoint       (0.5 0.001 -49.9);
    //    normalVector    (0 0 1);
   // }
   // crossPlane
   // {
   //     type            plane; 
   //     basePoint       (0.5 0.001 -0.001);
   //     normalVector    (1 0 0);
   // }
);


// *********************************************************************** //
