/*--------------------------------*- C++ -*----------------------------------*\
| =========                 |                                                 |
| \\      /  F ield         | OpenFOAM: The Open Source CFD Toolbox           |
|  \\    /   O peration     | Version:  2.2.0                                 |
|   \\  /    A nd           | Web:      www.OpenFOAM.org                      |
|    \\/     M anipulation  |                                                 |
\*---------------------------------------------------------------------------*/
FoamFile
{
    version     2.0;
    format      ascii;
    class       volScalarField;
    location    "0";
    object      delSalinity;
}
// * * * * * * * * * * * * * * * * * * * * * * * * * * * * * * * * * * * * * //

dimensions      [0 0 0 0 0 0 0];

internalField   uniform 0.0;

boundaryField
{
    centerline
    {
        type            symmetryPlane;
    }


    farfield
    {
        type            zeroGradient;
    }
    bottom
    {
        type            zeroGradient; 
    }
    atmosphere
    {
        type            slip; 
    }
    front
    {
        type            cyclic;
    }
    back
    {
	type		cyclic;
    }
}


// ************************************************************************* //
